/*--------------------------------*- C++ -*----------------------------------*\
| =========                 |                                                 |
| \\      /  F ield         | OpenFOAM: The Open Source CFD Toolbox           |
|  \\    /   O peration     | Version:  4.0                                   |
|   \\  /    A nd           | Web:      www.OpenFOAM.org                      |
|    \\/     M anipulation  |                                                 |
\*---------------------------------------------------------------------------*/
FoamFile
{
    version     2.0;
    format      ascii;
    class       dictionary;
    object      controlDict;
}
// * * * * * * * * * * * * * * * * * * * * * * * * * * * * * * * * * * * * * //

libs            ("libOpenFOAM.so" "libfieldFunctionObjects.so");

application     pisoFoam;

startFrom       startTime;

startTime       0;

stopAt          endTime;

endTime         1000;

deltaT          0.01;

writeControl    timeStep;

writeInterval   100;

purgeWrite      0;

writeFormat     ascii;

writePrecision  18;

writeCompression compressed;

timeFormat      general;

timePrecision   6;

runTimeModifiable true;


functions
{
    probes
    {
        type            probes;
        libs ("libsampling.so");
        axis    xyz;
        probeLocations
        (
            (    0.500000000000000000    -0.049000000000000002     0.002000000000000000)
			(    0.500000000000000000    -0.049000000000000002     0.006000000000000000)
			(    0.500000000000000000    -0.049000000000000002     0.010000000000000002)
			(    0.500000000000000000    -0.049000000000000002     0.014000000000000002)
			(    0.500000000000000000    -0.049000000000000002     0.017999999999999999)
			(    0.500000000000000000    -0.049000000000000002     0.022000000000000002)
			(    0.500000000000000000    -0.049000000000000002     0.026000000000000002)
			(    0.500000000000000000    -0.049000000000000002     0.029999999999999999)
			(    0.500000000000000000    -0.049000000000000002     0.034000000000000002)
			(    0.500000000000000000    -0.049000000000000002     0.038000000000000006)
			(    0.500000000000000000    -0.049000000000000002     0.042000000000000003)
			(    0.500000000000000000    -0.049000000000000002     0.046000000000000006)
			(    0.500000000000000000    -0.049000000000000002     0.050000000000000003)
			(    0.500000000000000000    -0.049000000000000002     0.054000000000000006)
			(    0.500000000000000000    -0.049000000000000002     0.057999999999999996)
			(    0.500000000000000000    -0.049000000000000002     0.062000000000000000)
			(    0.500000000000000000    -0.049000000000000002     0.066000000000000003)
			(    0.500000000000000000    -0.049000000000000002     0.069999999999999993)
			(    0.500000000000000000    -0.049000000000000002     0.073999999999999996)
			(    0.500000000000000000    -0.049000000000000002     0.078000000000000014)
			(    0.500000000000000000    -0.049000000000000002     0.082000000000000003)
			(    0.500000000000000000    -0.049000000000000002     0.086000000000000007)
			(    0.500000000000000000    -0.049000000000000002     0.090000000000000011)
			(    0.500000000000000000    -0.049000000000000002     0.094000000000000000)
			(    0.500000000000000000    -0.049000000000000002     0.098000000000000004)
			(    0.500000000000000000    -0.049000000000000002     0.102000000000000007)
			(    0.500000000000000000    -0.049000000000000002     0.106000000000000011)
			(    0.500000000000000000    -0.049000000000000002     0.110000000000000014)
			(    0.500000000000000000    -0.049000000000000002     0.113999999999999990)
			(    0.500000000000000000    -0.049000000000000002     0.117999999999999994)
			(    0.500000000000000000    -0.049000000000000002     0.121999999999999997)
			(    0.500000000000000000    -0.049000000000000002     0.126000000000000001)
			(    0.500000000000000000    -0.049000000000000002     0.130000000000000004)
			(    0.500000000000000000    -0.049000000000000002     0.134000000000000008)
			(    0.500000000000000000    -0.049000000000000002     0.137999999999999984)
			(    0.500000000000000000    -0.049000000000000002     0.141999999999999987)
			(    0.500000000000000000    -0.049000000000000002     0.145999999999999991)
			(    0.500000000000000000    -0.049000000000000002     0.150000000000000022)
			(    0.500000000000000000    -0.049000000000000002     0.154000000000000026)
			(    0.500000000000000000    -0.049000000000000002     0.158000000000000029)
			(    0.500000000000000000    -0.049000000000000002     0.162000000000000033)
			(    0.500000000000000000    -0.049000000000000002     0.166000000000000009)
			(    0.500000000000000000    -0.049000000000000002     0.170000000000000012)
			(    0.500000000000000000    -0.049000000000000002     0.174000000000000016)
			(    0.500000000000000000    -0.049000000000000002     0.178000000000000019)
			(    0.500000000000000000    -0.049000000000000002     0.182000000000000023)
			(    0.500000000000000000    -0.049000000000000002     0.186000000000000026)
			(    0.500000000000000000    -0.049000000000000002     0.190000000000000002)
			(    0.500000000000000000    -0.049000000000000002     0.194000000000000006)
			(    0.500000000000000000    -0.049000000000000002     0.198000000000000009)
			(    0.500000000000000000    -0.047000000000000000     0.002000000000000000)
			(    0.500000000000000000    -0.047000000000000000     0.006000000000000000)
			(    0.500000000000000000    -0.047000000000000000     0.010000000000000002)
			(    0.500000000000000000    -0.047000000000000000     0.014000000000000002)
			(    0.500000000000000000    -0.047000000000000000     0.017999999999999999)
			(    0.500000000000000000    -0.047000000000000000     0.022000000000000002)
			(    0.500000000000000000    -0.047000000000000000     0.026000000000000002)
			(    0.500000000000000000    -0.047000000000000000     0.029999999999999999)
			(    0.500000000000000000    -0.047000000000000000     0.034000000000000002)
			(    0.500000000000000000    -0.047000000000000000     0.038000000000000006)
			(    0.500000000000000000    -0.047000000000000000     0.042000000000000003)
			(    0.500000000000000000    -0.047000000000000000     0.046000000000000006)
			(    0.500000000000000000    -0.047000000000000000     0.050000000000000003)
			(    0.500000000000000000    -0.047000000000000000     0.054000000000000006)
			(    0.500000000000000000    -0.047000000000000000     0.057999999999999996)
			(    0.500000000000000000    -0.047000000000000000     0.062000000000000000)
			(    0.500000000000000000    -0.047000000000000000     0.066000000000000003)
			(    0.500000000000000000    -0.047000000000000000     0.069999999999999993)
			(    0.500000000000000000    -0.047000000000000000     0.073999999999999996)
			(    0.500000000000000000    -0.047000000000000000     0.078000000000000014)
			(    0.500000000000000000    -0.047000000000000000     0.082000000000000003)
			(    0.500000000000000000    -0.047000000000000000     0.086000000000000007)
			(    0.500000000000000000    -0.047000000000000000     0.090000000000000011)
			(    0.500000000000000000    -0.047000000000000000     0.094000000000000000)
			(    0.500000000000000000    -0.047000000000000000     0.098000000000000004)
			(    0.500000000000000000    -0.047000000000000000     0.102000000000000007)
			(    0.500000000000000000    -0.047000000000000000     0.106000000000000011)
			(    0.500000000000000000    -0.047000000000000000     0.110000000000000014)
			(    0.500000000000000000    -0.047000000000000000     0.113999999999999990)
			(    0.500000000000000000    -0.047000000000000000     0.117999999999999994)
			(    0.500000000000000000    -0.047000000000000000     0.121999999999999997)
			(    0.500000000000000000    -0.047000000000000000     0.126000000000000001)
			(    0.500000000000000000    -0.047000000000000000     0.130000000000000004)
			(    0.500000000000000000    -0.047000000000000000     0.134000000000000008)
			(    0.500000000000000000    -0.047000000000000000     0.137999999999999984)
			(    0.500000000000000000    -0.047000000000000000     0.141999999999999987)
			(    0.500000000000000000    -0.047000000000000000     0.145999999999999991)
			(    0.500000000000000000    -0.047000000000000000     0.150000000000000022)
			(    0.500000000000000000    -0.047000000000000000     0.154000000000000026)
			(    0.500000000000000000    -0.047000000000000000     0.158000000000000029)
			(    0.500000000000000000    -0.047000000000000000     0.162000000000000033)
			(    0.500000000000000000    -0.047000000000000000     0.166000000000000009)
			(    0.500000000000000000    -0.047000000000000000     0.170000000000000012)
			(    0.500000000000000000    -0.047000000000000000     0.174000000000000016)
			(    0.500000000000000000    -0.047000000000000000     0.178000000000000019)
			(    0.500000000000000000    -0.047000000000000000     0.182000000000000023)
			(    0.500000000000000000    -0.047000000000000000     0.186000000000000026)
			(    0.500000000000000000    -0.047000000000000000     0.190000000000000002)
			(    0.500000000000000000    -0.047000000000000000     0.194000000000000006)
			(    0.500000000000000000    -0.047000000000000000     0.198000000000000009)
			(    0.500000000000000000    -0.045000000000000005     0.002000000000000000)
			(    0.500000000000000000    -0.045000000000000005     0.006000000000000000)
			(    0.500000000000000000    -0.045000000000000005     0.010000000000000002)
			(    0.500000000000000000    -0.045000000000000005     0.014000000000000002)
			(    0.500000000000000000    -0.045000000000000005     0.017999999999999999)
			(    0.500000000000000000    -0.045000000000000005     0.022000000000000002)
			(    0.500000000000000000    -0.045000000000000005     0.026000000000000002)
			(    0.500000000000000000    -0.045000000000000005     0.029999999999999999)
			(    0.500000000000000000    -0.045000000000000005     0.034000000000000002)
			(    0.500000000000000000    -0.045000000000000005     0.038000000000000006)
			(    0.500000000000000000    -0.045000000000000005     0.042000000000000003)
			(    0.500000000000000000    -0.045000000000000005     0.046000000000000006)
			(    0.500000000000000000    -0.045000000000000005     0.050000000000000003)
			(    0.500000000000000000    -0.045000000000000005     0.054000000000000006)
			(    0.500000000000000000    -0.045000000000000005     0.057999999999999996)
			(    0.500000000000000000    -0.045000000000000005     0.062000000000000000)
			(    0.500000000000000000    -0.045000000000000005     0.066000000000000003)
			(    0.500000000000000000    -0.045000000000000005     0.069999999999999993)
			(    0.500000000000000000    -0.045000000000000005     0.073999999999999996)
			(    0.500000000000000000    -0.045000000000000005     0.078000000000000014)
			(    0.500000000000000000    -0.045000000000000005     0.082000000000000003)
			(    0.500000000000000000    -0.045000000000000005     0.086000000000000007)
			(    0.500000000000000000    -0.045000000000000005     0.090000000000000011)
			(    0.500000000000000000    -0.045000000000000005     0.094000000000000000)
			(    0.500000000000000000    -0.045000000000000005     0.098000000000000004)
			(    0.500000000000000000    -0.045000000000000005     0.102000000000000007)
			(    0.500000000000000000    -0.045000000000000005     0.106000000000000011)
			(    0.500000000000000000    -0.045000000000000005     0.110000000000000014)
			(    0.500000000000000000    -0.045000000000000005     0.113999999999999990)
			(    0.500000000000000000    -0.045000000000000005     0.117999999999999994)
			(    0.500000000000000000    -0.045000000000000005     0.121999999999999997)
			(    0.500000000000000000    -0.045000000000000005     0.126000000000000001)
			(    0.500000000000000000    -0.045000000000000005     0.130000000000000004)
			(    0.500000000000000000    -0.045000000000000005     0.134000000000000008)
			(    0.500000000000000000    -0.045000000000000005     0.137999999999999984)
			(    0.500000000000000000    -0.045000000000000005     0.141999999999999987)
			(    0.500000000000000000    -0.045000000000000005     0.145999999999999991)
			(    0.500000000000000000    -0.045000000000000005     0.150000000000000022)
			(    0.500000000000000000    -0.045000000000000005     0.154000000000000026)
			(    0.500000000000000000    -0.045000000000000005     0.158000000000000029)
			(    0.500000000000000000    -0.045000000000000005     0.162000000000000033)
			(    0.500000000000000000    -0.045000000000000005     0.166000000000000009)
			(    0.500000000000000000    -0.045000000000000005     0.170000000000000012)
			(    0.500000000000000000    -0.045000000000000005     0.174000000000000016)
			(    0.500000000000000000    -0.045000000000000005     0.178000000000000019)
			(    0.500000000000000000    -0.045000000000000005     0.182000000000000023)
			(    0.500000000000000000    -0.045000000000000005     0.186000000000000026)
			(    0.500000000000000000    -0.045000000000000005     0.190000000000000002)
			(    0.500000000000000000    -0.045000000000000005     0.194000000000000006)
			(    0.500000000000000000    -0.045000000000000005     0.198000000000000009)
			(    0.500000000000000000    -0.043000000000000003     0.002000000000000000)
			(    0.500000000000000000    -0.043000000000000003     0.006000000000000000)
			(    0.500000000000000000    -0.043000000000000003     0.010000000000000002)
			(    0.500000000000000000    -0.043000000000000003     0.014000000000000002)
			(    0.500000000000000000    -0.043000000000000003     0.017999999999999999)
			(    0.500000000000000000    -0.043000000000000003     0.022000000000000002)
			(    0.500000000000000000    -0.043000000000000003     0.026000000000000002)
			(    0.500000000000000000    -0.043000000000000003     0.029999999999999999)
			(    0.500000000000000000    -0.043000000000000003     0.034000000000000002)
			(    0.500000000000000000    -0.043000000000000003     0.038000000000000006)
			(    0.500000000000000000    -0.043000000000000003     0.042000000000000003)
			(    0.500000000000000000    -0.043000000000000003     0.046000000000000006)
			(    0.500000000000000000    -0.043000000000000003     0.050000000000000003)
			(    0.500000000000000000    -0.043000000000000003     0.054000000000000006)
			(    0.500000000000000000    -0.043000000000000003     0.057999999999999996)
			(    0.500000000000000000    -0.043000000000000003     0.062000000000000000)
			(    0.500000000000000000    -0.043000000000000003     0.066000000000000003)
			(    0.500000000000000000    -0.043000000000000003     0.069999999999999993)
			(    0.500000000000000000    -0.043000000000000003     0.073999999999999996)
			(    0.500000000000000000    -0.043000000000000003     0.078000000000000014)
			(    0.500000000000000000    -0.043000000000000003     0.082000000000000003)
			(    0.500000000000000000    -0.043000000000000003     0.086000000000000007)
			(    0.500000000000000000    -0.043000000000000003     0.090000000000000011)
			(    0.500000000000000000    -0.043000000000000003     0.094000000000000000)
			(    0.500000000000000000    -0.043000000000000003     0.098000000000000004)
			(    0.500000000000000000    -0.043000000000000003     0.102000000000000007)
			(    0.500000000000000000    -0.043000000000000003     0.106000000000000011)
			(    0.500000000000000000    -0.043000000000000003     0.110000000000000014)
			(    0.500000000000000000    -0.043000000000000003     0.113999999999999990)
			(    0.500000000000000000    -0.043000000000000003     0.117999999999999994)
			(    0.500000000000000000    -0.043000000000000003     0.121999999999999997)
			(    0.500000000000000000    -0.043000000000000003     0.126000000000000001)
			(    0.500000000000000000    -0.043000000000000003     0.130000000000000004)
			(    0.500000000000000000    -0.043000000000000003     0.134000000000000008)
			(    0.500000000000000000    -0.043000000000000003     0.137999999999999984)
			(    0.500000000000000000    -0.043000000000000003     0.141999999999999987)
			(    0.500000000000000000    -0.043000000000000003     0.145999999999999991)
			(    0.500000000000000000    -0.043000000000000003     0.150000000000000022)
			(    0.500000000000000000    -0.043000000000000003     0.154000000000000026)
			(    0.500000000000000000    -0.043000000000000003     0.158000000000000029)
			(    0.500000000000000000    -0.043000000000000003     0.162000000000000033)
			(    0.500000000000000000    -0.043000000000000003     0.166000000000000009)
			(    0.500000000000000000    -0.043000000000000003     0.170000000000000012)
			(    0.500000000000000000    -0.043000000000000003     0.174000000000000016)
			(    0.500000000000000000    -0.043000000000000003     0.178000000000000019)
			(    0.500000000000000000    -0.043000000000000003     0.182000000000000023)
			(    0.500000000000000000    -0.043000000000000003     0.186000000000000026)
			(    0.500000000000000000    -0.043000000000000003     0.190000000000000002)
			(    0.500000000000000000    -0.043000000000000003     0.194000000000000006)
			(    0.500000000000000000    -0.043000000000000003     0.198000000000000009)
			(    0.500000000000000000    -0.041000000000000009     0.002000000000000000)
			(    0.500000000000000000    -0.041000000000000009     0.006000000000000000)
			(    0.500000000000000000    -0.041000000000000009     0.010000000000000002)
			(    0.500000000000000000    -0.041000000000000009     0.014000000000000002)
			(    0.500000000000000000    -0.041000000000000009     0.017999999999999999)
			(    0.500000000000000000    -0.041000000000000009     0.022000000000000002)
			(    0.500000000000000000    -0.041000000000000009     0.026000000000000002)
			(    0.500000000000000000    -0.041000000000000009     0.029999999999999999)
			(    0.500000000000000000    -0.041000000000000009     0.034000000000000002)
			(    0.500000000000000000    -0.041000000000000009     0.038000000000000006)
			(    0.500000000000000000    -0.041000000000000009     0.042000000000000003)
			(    0.500000000000000000    -0.041000000000000009     0.046000000000000006)
			(    0.500000000000000000    -0.041000000000000009     0.050000000000000003)
			(    0.500000000000000000    -0.041000000000000009     0.054000000000000006)
			(    0.500000000000000000    -0.041000000000000009     0.057999999999999996)
			(    0.500000000000000000    -0.041000000000000009     0.062000000000000000)
			(    0.500000000000000000    -0.041000000000000009     0.066000000000000003)
			(    0.500000000000000000    -0.041000000000000009     0.069999999999999993)
			(    0.500000000000000000    -0.041000000000000009     0.073999999999999996)
			(    0.500000000000000000    -0.041000000000000009     0.078000000000000014)
			(    0.500000000000000000    -0.041000000000000009     0.082000000000000003)
			(    0.500000000000000000    -0.041000000000000009     0.086000000000000007)
			(    0.500000000000000000    -0.041000000000000009     0.090000000000000011)
			(    0.500000000000000000    -0.041000000000000009     0.094000000000000000)
			(    0.500000000000000000    -0.041000000000000009     0.098000000000000004)
			(    0.500000000000000000    -0.041000000000000009     0.102000000000000007)
			(    0.500000000000000000    -0.041000000000000009     0.106000000000000011)
			(    0.500000000000000000    -0.041000000000000009     0.110000000000000014)
			(    0.500000000000000000    -0.041000000000000009     0.113999999999999990)
			(    0.500000000000000000    -0.041000000000000009     0.117999999999999994)
			(    0.500000000000000000    -0.041000000000000009     0.121999999999999997)
			(    0.500000000000000000    -0.041000000000000009     0.126000000000000001)
			(    0.500000000000000000    -0.041000000000000009     0.130000000000000004)
			(    0.500000000000000000    -0.041000000000000009     0.134000000000000008)
			(    0.500000000000000000    -0.041000000000000009     0.137999999999999984)
			(    0.500000000000000000    -0.041000000000000009     0.141999999999999987)
			(    0.500000000000000000    -0.041000000000000009     0.145999999999999991)
			(    0.500000000000000000    -0.041000000000000009     0.150000000000000022)
			(    0.500000000000000000    -0.041000000000000009     0.154000000000000026)
			(    0.500000000000000000    -0.041000000000000009     0.158000000000000029)
			(    0.500000000000000000    -0.041000000000000009     0.162000000000000033)
			(    0.500000000000000000    -0.041000000000000009     0.166000000000000009)
			(    0.500000000000000000    -0.041000000000000009     0.170000000000000012)
			(    0.500000000000000000    -0.041000000000000009     0.174000000000000016)
			(    0.500000000000000000    -0.041000000000000009     0.178000000000000019)
			(    0.500000000000000000    -0.041000000000000009     0.182000000000000023)
			(    0.500000000000000000    -0.041000000000000009     0.186000000000000026)
			(    0.500000000000000000    -0.041000000000000009     0.190000000000000002)
			(    0.500000000000000000    -0.041000000000000009     0.194000000000000006)
			(    0.500000000000000000    -0.041000000000000009     0.198000000000000009)
			(    0.500000000000000000    -0.039000000000000007     0.002000000000000000)
			(    0.500000000000000000    -0.039000000000000007     0.006000000000000000)
			(    0.500000000000000000    -0.039000000000000007     0.010000000000000002)
			(    0.500000000000000000    -0.039000000000000007     0.014000000000000002)
			(    0.500000000000000000    -0.039000000000000007     0.017999999999999999)
			(    0.500000000000000000    -0.039000000000000007     0.022000000000000002)
			(    0.500000000000000000    -0.039000000000000007     0.026000000000000002)
			(    0.500000000000000000    -0.039000000000000007     0.029999999999999999)
			(    0.500000000000000000    -0.039000000000000007     0.034000000000000002)
			(    0.500000000000000000    -0.039000000000000007     0.038000000000000006)
			(    0.500000000000000000    -0.039000000000000007     0.042000000000000003)
			(    0.500000000000000000    -0.039000000000000007     0.046000000000000006)
			(    0.500000000000000000    -0.039000000000000007     0.050000000000000003)
			(    0.500000000000000000    -0.039000000000000007     0.054000000000000006)
			(    0.500000000000000000    -0.039000000000000007     0.057999999999999996)
			(    0.500000000000000000    -0.039000000000000007     0.062000000000000000)
			(    0.500000000000000000    -0.039000000000000007     0.066000000000000003)
			(    0.500000000000000000    -0.039000000000000007     0.069999999999999993)
			(    0.500000000000000000    -0.039000000000000007     0.073999999999999996)
			(    0.500000000000000000    -0.039000000000000007     0.078000000000000014)
			(    0.500000000000000000    -0.039000000000000007     0.082000000000000003)
			(    0.500000000000000000    -0.039000000000000007     0.086000000000000007)
			(    0.500000000000000000    -0.039000000000000007     0.090000000000000011)
			(    0.500000000000000000    -0.039000000000000007     0.094000000000000000)
			(    0.500000000000000000    -0.039000000000000007     0.098000000000000004)
			(    0.500000000000000000    -0.039000000000000007     0.102000000000000007)
			(    0.500000000000000000    -0.039000000000000007     0.106000000000000011)
			(    0.500000000000000000    -0.039000000000000007     0.110000000000000014)
			(    0.500000000000000000    -0.039000000000000007     0.113999999999999990)
			(    0.500000000000000000    -0.039000000000000007     0.117999999999999994)
			(    0.500000000000000000    -0.039000000000000007     0.121999999999999997)
			(    0.500000000000000000    -0.039000000000000007     0.126000000000000001)
			(    0.500000000000000000    -0.039000000000000007     0.130000000000000004)
			(    0.500000000000000000    -0.039000000000000007     0.134000000000000008)
			(    0.500000000000000000    -0.039000000000000007     0.137999999999999984)
			(    0.500000000000000000    -0.039000000000000007     0.141999999999999987)
			(    0.500000000000000000    -0.039000000000000007     0.145999999999999991)
			(    0.500000000000000000    -0.039000000000000007     0.150000000000000022)
			(    0.500000000000000000    -0.039000000000000007     0.154000000000000026)
			(    0.500000000000000000    -0.039000000000000007     0.158000000000000029)
			(    0.500000000000000000    -0.039000000000000007     0.162000000000000033)
			(    0.500000000000000000    -0.039000000000000007     0.166000000000000009)
			(    0.500000000000000000    -0.039000000000000007     0.170000000000000012)
			(    0.500000000000000000    -0.039000000000000007     0.174000000000000016)
			(    0.500000000000000000    -0.039000000000000007     0.178000000000000019)
			(    0.500000000000000000    -0.039000000000000007     0.182000000000000023)
			(    0.500000000000000000    -0.039000000000000007     0.186000000000000026)
			(    0.500000000000000000    -0.039000000000000007     0.190000000000000002)
			(    0.500000000000000000    -0.039000000000000007     0.194000000000000006)
			(    0.500000000000000000    -0.039000000000000007     0.198000000000000009)
			(    0.500000000000000000    -0.036999999999999998     0.002000000000000000)
			(    0.500000000000000000    -0.036999999999999998     0.006000000000000000)
			(    0.500000000000000000    -0.036999999999999998     0.010000000000000002)
			(    0.500000000000000000    -0.036999999999999998     0.014000000000000002)
			(    0.500000000000000000    -0.036999999999999998     0.017999999999999999)
			(    0.500000000000000000    -0.036999999999999998     0.022000000000000002)
			(    0.500000000000000000    -0.036999999999999998     0.026000000000000002)
			(    0.500000000000000000    -0.036999999999999998     0.029999999999999999)
			(    0.500000000000000000    -0.036999999999999998     0.034000000000000002)
			(    0.500000000000000000    -0.036999999999999998     0.038000000000000006)
			(    0.500000000000000000    -0.036999999999999998     0.042000000000000003)
			(    0.500000000000000000    -0.036999999999999998     0.046000000000000006)
			(    0.500000000000000000    -0.036999999999999998     0.050000000000000003)
			(    0.500000000000000000    -0.036999999999999998     0.054000000000000006)
			(    0.500000000000000000    -0.036999999999999998     0.057999999999999996)
			(    0.500000000000000000    -0.036999999999999998     0.062000000000000000)
			(    0.500000000000000000    -0.036999999999999998     0.066000000000000003)
			(    0.500000000000000000    -0.036999999999999998     0.069999999999999993)
			(    0.500000000000000000    -0.036999999999999998     0.073999999999999996)
			(    0.500000000000000000    -0.036999999999999998     0.078000000000000014)
			(    0.500000000000000000    -0.036999999999999998     0.082000000000000003)
			(    0.500000000000000000    -0.036999999999999998     0.086000000000000007)
			(    0.500000000000000000    -0.036999999999999998     0.090000000000000011)
			(    0.500000000000000000    -0.036999999999999998     0.094000000000000000)
			(    0.500000000000000000    -0.036999999999999998     0.098000000000000004)
			(    0.500000000000000000    -0.036999999999999998     0.102000000000000007)
			(    0.500000000000000000    -0.036999999999999998     0.106000000000000011)
			(    0.500000000000000000    -0.036999999999999998     0.110000000000000014)
			(    0.500000000000000000    -0.036999999999999998     0.113999999999999990)
			(    0.500000000000000000    -0.036999999999999998     0.117999999999999994)
			(    0.500000000000000000    -0.036999999999999998     0.121999999999999997)
			(    0.500000000000000000    -0.036999999999999998     0.126000000000000001)
			(    0.500000000000000000    -0.036999999999999998     0.130000000000000004)
			(    0.500000000000000000    -0.036999999999999998     0.134000000000000008)
			(    0.500000000000000000    -0.036999999999999998     0.137999999999999984)
			(    0.500000000000000000    -0.036999999999999998     0.141999999999999987)
			(    0.500000000000000000    -0.036999999999999998     0.145999999999999991)
			(    0.500000000000000000    -0.036999999999999998     0.150000000000000022)
			(    0.500000000000000000    -0.036999999999999998     0.154000000000000026)
			(    0.500000000000000000    -0.036999999999999998     0.158000000000000029)
			(    0.500000000000000000    -0.036999999999999998     0.162000000000000033)
			(    0.500000000000000000    -0.036999999999999998     0.166000000000000009)
			(    0.500000000000000000    -0.036999999999999998     0.170000000000000012)
			(    0.500000000000000000    -0.036999999999999998     0.174000000000000016)
			(    0.500000000000000000    -0.036999999999999998     0.178000000000000019)
			(    0.500000000000000000    -0.036999999999999998     0.182000000000000023)
			(    0.500000000000000000    -0.036999999999999998     0.186000000000000026)
			(    0.500000000000000000    -0.036999999999999998     0.190000000000000002)
			(    0.500000000000000000    -0.036999999999999998     0.194000000000000006)
			(    0.500000000000000000    -0.036999999999999998     0.198000000000000009)
			(    0.500000000000000000    -0.034999999999999996     0.002000000000000000)
			(    0.500000000000000000    -0.034999999999999996     0.006000000000000000)
			(    0.500000000000000000    -0.034999999999999996     0.010000000000000002)
			(    0.500000000000000000    -0.034999999999999996     0.014000000000000002)
			(    0.500000000000000000    -0.034999999999999996     0.017999999999999999)
			(    0.500000000000000000    -0.034999999999999996     0.022000000000000002)
			(    0.500000000000000000    -0.034999999999999996     0.026000000000000002)
			(    0.500000000000000000    -0.034999999999999996     0.029999999999999999)